histodb-server/src/test/resources/network.xiidm
<?xml version="1.0" encoding="UTF-8"?>
<iidm:network xmlns:iidm="http://www.itesla_project.eu/schema/iidm/1_0" id="network1" caseDate="2017-01-01T00:00:00.000Z" forecastDistance="0" sourceFormat="test">
    <iidm:substation id="substation1" country="FR" tso="TSO1" geographicalTags="region1">
        <iidm:voltageLevel id="voltageLevel1" nominalV="400.0" topologyKind="NODE_BREAKER">
            <iidm:nodeBreakerTopology nodeCount="10">
                <iidm:busbarSection id="voltageLevel1BusbarSection1" node="0"/>
                <iidm:busbarSection id="voltageLevel1BusbarSection2" node="1"/>
                <iidm:switch id="voltageLevel1Breaker1" kind="BREAKER" retained="true" open="false" node1="0" node2="1"/>
                <iidm:switch id="load1Disconnector1" kind="DISCONNECTOR" retained="false" open="false" node1="2" node2="3"/>
                <iidm:switch id="load1Breaker1" kind="DISCONNECTOR" retained="false" open="false" node1="3" node2="0"/>
                <iidm:switch id="generator1Disconnector1" kind="DISCONNECTOR" retained="false" open="false" node1="5" node2="6"/>
                <iidm:switch id="generator1Breaker1" kind="DISCONNECTOR" retained="false" open="false" node1="6" node2="1"/>
            </iidm:nodeBreakerTopology>
            <iidm:generator id="generator1" energySource="NUCLEAR" minP="200.0" maxP="900.0" voltageRegulatorOn="true" targetP="900.0" targetV="380.0" node="5">
                <iidm:reactiveCapabilityCurve>
                    <iidm:point p="200.0" minQ="300.0" maxQ="500.0"/>
                    <iidm:point p="900.0" minQ="300.0" maxQ="500.0"/>
                </iidm:reactiveCapabilityCurve>
            </iidm:generator>
            <iidm:load id="load1" loadType="UNDEFINED" p0="10.0" q0="3.0" node="2"/>
        </iidm:voltageLevel>
    </iidm:substation>
    <iidm:substation id="substation2" country="FR" tso="TSO1" geographicalTags="region1">
        <iidm:voltageLevel id="voltageLevel2" nominalV="63.0" lowVoltageLimit="59.0" highVoltageLimit="68.00001" topologyKind="NODE_BREAKER">
            <iidm:nodeBreakerTopology nodeCount="13">
                <iidm:busbarSection id="voltageLevel2BusbarSection3" name="1.1" node="0" v="64.099945" angle="-2.9974117"/>
                <iidm:busbarSection id="voltageLevel1BusbarSection4" name="1.2" node="1" v="64.099945" angle="-2.9974117"/>
                <iidm:switch id="switch1" kind="DISCONNECTOR" retained="false" open="false" node1="0" node2="6"/>
                <iidm:switch id="switch2" kind="DISCONNECTOR" retained="false" open="false" node1="0" node2="1"/>
            </iidm:nodeBreakerTopology>
            <iidm:load id="load2" loadType="UNDEFINED" p0="0.0" q0="0.23148434" node="7" p="0.0" q="0.23148434"/>
            <iidm:load id="load3" loadType="UNDEFINED" p0="0.0" q0="0.23148434" node="8" p="0.0" q="0.23148434"/>
        </iidm:voltageLevel>
    </iidm:substation>
    <iidm:line id="LINE1" r="0.58" x="1.16" g1="0.0" b1="4.0E-6" g2="0.0" b2="4.0E-6" node1="6" voltageLevelId1="voltageLevel1" node2="6" voltageLevelId2="voltageLevel2">
        <iidm:currentLimits1 permanentLimit="412.0">
            <iidm:temporaryLimit name="IT105" acceptableDuration="6300"/>
        </iidm:currentLimits1>
        <iidm:currentLimits2 permanentLimit="412.0"/>
    </iidm:line>
</iidm:network>
